 OpenMP thread   3 of   3 is running
 OpenMP thread   1 of   3 is running
 OpenMP thread   0 of   3 is running
 OpenMP thread   2 of   3 is running

 Fire Dynamics Simulator

 Revision Date    : 2015-05-21 16:50
 Compilation Date : 2015-05-21 16:52
 Current Date     : May 21, 2015  16:55:00
 Version          : FDS 6.2.0
 Revision         : 2f2e24e

 MPI Disabled
 OpenMP Enabled; Number of OpenMP Threads:   4

 Consult FDS Users Guide Chapter, Running FDS, for further instructions.

 Hit Enter to Escape...
